*Heading
** Job name: 1_MR_tension Model name: Tension_MR
** Generated by: Abaqus/CAE 2025
*Preprint, echo=NO, model=NO, history=NO, contact=NO
**
** PARTS
**
*Part, name=dogbone_sample_3D
*Node
      1,  -43.1826057,           7.,   36.9848824
      2,  -43.1826057,           5.,   36.9848824
      3,  -39.0159378,           7.,   36.9848824
      4,  -39.0159378,           5.,   36.9848824
      5,  -34.8492737,           7.,   36.9848824
      6,  -34.8492737,           5.,   36.9848824
      7,  -30.6826057,           7.,   36.9848824
      8,  -30.6826057,           5.,   36.9848824
      9,  -26.5159397,           7.,   36.9848824
     10,  -26.5159397,           5.,   36.9848824
     11,  -22.3492718,           7.,   36.9848824
     12,  -22.3492718,           5.,   36.9848824
     13,  -18.1826057,           7.,   36.9848824
     14,  -18.1826057,           5.,   36.9848824
     15,  -43.1826057,           7.,   34.4032135
     16,  -43.1826057,           5.,   34.4032135
     17,  -39.0159378,           7.,   34.4032135
     18,  -39.0159378,           5.,   34.4032135
     19,  -34.8492737,           7.,   34.4032135
     20,  -34.8492737,           5.,   34.4032135
** ... 2269 like lines cut
*Element, type=C3D20RH
  1,   15,   16,   18,   17,    1,    2,    4,    3,  690,  689,  688,  687,  691,  692,  693,
      694,  696,  695,  697,  698
  2,   17,   18,   20,   19,    3,    4,    6,    5,  688,  701,  700,  699,  693,  702,  703,
      704,  698,  697,  705,  706
  3,   19,   20,   22,   21,    5,    6,    8,    7,  700,  709,  708,  707,  703,  710,  711,
      712,  706,  705,  713,  714
  4,   21,   22,   24,   23,    7,    8,   10,    9,  708,  717,  716,  715,  711,  718,  719,
      720,  714,  713,  721,  722
  5,   23,   24,   26,   25,    9,   10,   12,   11,  716,  725,  724,  723,  719,  726,  727,
      728,  722,  721,  729,  730
  6,   25,   26,   28,   27,   11,   12,   14,   13,  724,  733,  732,  731,  727,  734,  735,
      736,  730,  729,  737,  738
  7,   29,   30,   32,   31,   15,   16,   18,   17,  742,  741,  740,  739,  690,  689,  688,
      687,  744,  743,  745,  746
  8,   31,   32,   34,   33,   17,   18,   20,   19,  740,  749,  748,  747,  688,  701,  700,
      699,  746,  745,  750,  751
  9,   33,   34,   36,   35,   19,   20,   22,   21,  748,  754,  753,  752,  700,  709,  708,
      707,  751,  750,  755,  756
 10,   35,   36,   38,   37,   21,   22,   24,   23,  753,  759,  758,  757,  708,  717,  716,
      715,  756,  755,  760,  761
** ... 556 like lines cut
*Nset, nset=_PickedSet2, internal, generate
    1,  2289,     1
*Elset, elset=_PickedSet2, internal, generate
   1,  288,    1
*Nset, nset=set
 343,
** Section: BBDINO30
*Solid Section, elset=_PickedSet2, material=BBIDNO30
,
*End Part
**  
**
** ASSEMBLY
**
*Assembly, name=Assembly
**  
*Instance, name=dogbone_sample_3D-1, part=dogbone_sample_3D
   30.682606,    36.984882,          -6.
   30.682606,    36.984882,          -6.,    31.682606,    36.984882,          -6.,          90.
*End Instance
**  
*Nset, nset=Bottom, instance=dogbone_sample_3D-1
 301,
*Nset, nset=Top, instance=dogbone_sample_3D-1
 385,
*Nset, nset=_PickedSet12, internal, instance=dogbone_sample_3D-1
   1,   2,   3,   4,   5,   6,   7,   8,   9,  10,  11,  12,  13,  14, 691, 692
 693, 694, 702, 703, 704, 710, 711, 712, 718, 719, 720, 726, 727, 728, 734, 735
 736,
*Elset, elset=_PickedSet12, internal, instance=dogbone_sample_3D-1, generate
 1,  6,  1
*Nset, nset=_PickedSet13, internal, instance=dogbone_sample_3D-1
  673,  674,  675,  676,  677,  678,  679,  680,  681,  682,  683,  684,  685,  686, 2257, 2258
 2259, 2260, 2265, 2266, 2267, 2270, 2271, 2272, 2275, 2276, 2277, 2280, 2281, 2282, 2285, 2286
 2287,
*Elset, elset=_PickedSet13, internal, instance=dogbone_sample_3D-1, generate
 283,  288,    1
*End Assembly
** 
** MATERIALS
** 
*Material, name=BBIDNO30
*Density
 1.06e-09,
*Hyperelastic, mooney-rivlin
 0.058239, 0.047687,       0.
** 
** BOUNDARY CONDITIONS
** 
** Name: Bottom_Fix Type: Symmetry/Antisymmetry/Encastre
*Boundary
_PickedSet12, ENCASTRE
** ----------------------------------------------------------------
** 
** STEP: Tension
** 
*Step, name=Tension, nlgeom=YES, inc=5000
*Static
0.01, 1., 1e-05, 0.05
** 
** BOUNDARY CONDITIONS
** 
** Name: Tension Type: Displacement/Rotation
*Boundary
_PickedSet13, 2, 2, 80.
** 
** OUTPUT REQUESTS
** 
*Restart, write, frequency=0
** 
** FIELD OUTPUT: F-Output-1
** 
*Output, field
*Node Output
RF, U
*Element Output, directions=YES
E, S
** 
** HISTORY OUTPUT: Bottom
** 
*Output, history
*Node Output, nset=Bottom
U2, 
** 
** HISTORY OUTPUT: Top
** 
*Node Output, nset=Top
U2, 
*End Step
