*Heading
** Job name: 1_MR_plan Model name: PlanarShear_MR
** Generated by: Abaqus/CAE 2025
*Preprint, echo=NO, model=NO, history=NO, contact=NO
**
** PARTS
**
*Part, name="pure shear sample w partition-1"
*Node
      1,    704.47699,         -0.5,  -17.8166332
      2,    704.47699,         -0.5,  -51.8166313
      3,    489.47702,         -0.5,  -17.8166332
      4,    489.47702,         -0.5,  -51.8166313
      5,    528.24353,         -0.5,  -37.6500854
      6,   527.277039,         -0.5,  -35.3166313
      7,    528.24353,         -0.5,   -32.983181
      8,   530.577026,         -0.5,  -38.6166344
      9,   530.577026,         -0.5,  -32.0166321
     10,   532.910461,         -0.5,   -32.983181
     11,   533.877014,         -0.5,  -35.3166313
     12,   532.910461,         -0.5,  -37.6500854
     13,   561.443542,         -0.5,  -37.6500854
     14,    560.47699,         -0.5,  -35.3166313
     15,   561.443542,         -0.5,   -32.983181
     16,   563.777039,         -0.5,  -38.6166344
     17,   563.777039,         -0.5,  -32.0166321
     18,   566.110474,         -0.5,   -32.983181
     19,   567.077026,         -0.5,  -35.3166313
     20,   566.110474,         -0.5,  -37.6500854
** ... 660 like lines cut
*Element, type=C3D8RH
  1, 121, 139, 270,  61, 461, 479, 610, 401
  2, 161, 311, 271, 133, 501, 651, 611, 473
  3, 105, 270, 139,  39, 445, 610, 479, 379
  4, 208, 220, 246, 307, 548, 560, 586, 647
  5, 227, 285, 244, 242, 567, 625, 584, 582
  6, 285, 227, 148, 194, 625, 567, 488, 534
  7, 259, 181, 180, 174, 599, 521, 520, 514
  8, 180, 162, 134, 174, 520, 502, 474, 514
  9, 314, 313, 162, 232, 654, 653, 502, 572
 10, 141,  18,  17, 103, 481, 358, 357, 443
 11, 123,  26,  25, 163, 463, 366, 365, 503
 12, 163, 206, 177, 123, 503, 546, 517, 463
 13, 197, 143,  23, 119, 537, 483, 363, 459
 14, 302, 303, 237, 321, 642, 643, 577, 661
 15,  16,  20, 115, 286, 356, 360, 455, 626
 16, 100, 235, 167,  99, 440, 575, 507, 439
 17, 242, 101, 102, 227, 582, 441, 442, 567
 18, 279, 252, 247,  82, 619, 592, 587, 422
 19, 129,  30,  29, 252, 469, 370, 369, 592
 20, 266,  33,  31, 140, 606, 373, 371, 480
** ... 275 like lines cut
*Nset, nset=_PickedSet2, internal, generate
   1,  680,    1
*Elset, elset=_PickedSet2, internal, generate
   1,  295,    1
** Section: BBIDNO30
*Solid Section, elset=_PickedSet2, material=Material-1
,
*End Part
**  
*Part, name="pure shear sample w partition-2"
*Node
      1,    489.47702,         -0.5,   2.18336749
      2,    489.47702,         -0.5,   36.1833687
      3,    704.47699,         -0.5,   2.18336749
      4,    704.47699,         -0.5,   36.1833687
      5,   594.643555,         -0.5,   17.3499146
      6,   593.677002,         -0.5,   19.6833668
      7,   594.643555,         -0.5,    22.016819
      8,    596.97699,         -0.5,   16.3833675
      9,    596.97699,         -0.5,   22.9833679
     10,   599.310486,         -0.5,    22.016819
     11,   600.277039,         -0.5,   19.6833668
     12,   599.310486,         -0.5,   17.3499146
     13,   561.443542,         -0.5,   17.3499146
     14,    560.47699,         -0.5,   19.6833668
     15,   561.443542,         -0.5,    22.016819
     16,   563.777039,         -0.5,   16.3833675
     17,   563.777039,         -0.5,   22.9833679
     18,   566.110474,         -0.5,    22.016819
     19,   567.077026,         -0.5,   19.6833668
     20,   566.110474,         -0.5,   17.3499146
** ... 698 like lines cut
*Element, type=C3D8RH
  1,  51, 288, 209, 162, 410, 647, 568, 521
  2,  57,  55, 176, 136, 416, 414, 535, 495
  3, 108, 149, 288, 287, 467, 508, 647, 646
  4, 218,  80, 249, 228, 577, 439, 608, 587
  5,  51, 162, 151,  52, 410, 521, 510, 411
  6, 349, 209, 231, 348, 708, 568, 590, 707
  7, 258, 173, 283, 285, 617, 532, 642, 644
  8, 267, 313, 266,   8, 626, 672, 625, 367
  9, 314, 313, 267, 315, 673, 672, 626, 674
 10, 206, 317, 316, 318, 565, 676, 675, 677
 11, 203, 161, 224, 232, 562, 520, 583, 591
 12, 342, 188, 106, 147, 701, 547, 465, 506
 13,  99, 149, 108, 169, 458, 508, 467, 528
 14, 356, 291,  59, 301, 715, 650, 418, 660
 15,  56,  60, 320, 292, 415, 419, 679, 651
 16, 255, 218, 177, 289, 614, 577, 536, 648
 17,  48,  52, 151, 284, 407, 411, 510, 643
 18, 178, 270,  10, 138, 537, 629, 369, 497
 19, 114, 145, 330, 332, 473, 504, 689, 691
 20, 145, 114,  26, 105, 504, 473, 385, 464
** ... 294 like lines cut
*Nset, nset=_PickedSet2, internal, generate
   1,  718,    1
*Elset, elset=_PickedSet2, internal, generate
   1,  314,    1
** Section: BBIDNO30
*Solid Section, elset=_PickedSet2, material=Material-1
,
*End Part
**  
*Part, name="pure shear sample w partition-3"
*Node
      1,    704.47699,           1.,   2.18336749
      2,    704.47699,           1.,   1.68336737
      3,    704.47699,           1.,   1.18336737
      4,    704.47699,           1.,  0.683367372
      5,    704.47699,           1.,  0.183367386
      6,    704.47699,           1., -0.316632628
      7,    704.47699,           1., -0.816632628
      8,    704.47699,           1.,  -1.31663263
      9,    704.47699,           1.,  -1.81663263
     10,    704.47699,           1.,  -2.31663251
     11,    704.47699,           1.,  -2.81663251
     12,    704.47699,           1.,  -3.31663251
     13,    704.47699,           1.,  -3.81663251
     14,    704.47699,           1.,  -4.31663275
     15,    704.47699,           1.,  -4.81663275
     16,    704.47699,           1.,  -5.31663275
     17,    704.47699,           1.,  -5.81663275
     18,    704.47699,           1.,  -6.31663275
     19,    704.47699,           1.,  -6.81663275
     20,    704.47699,           1.,  -7.31663275
** ... 70664 like lines cut
*Element, type=C3D8RH
    1, 17672, 17673, 17714, 17713,     1,     2,    43,    42
    2, 17673, 17674, 17715, 17714,     2,     3,    44,    43
    3, 17674, 17675, 17716, 17715,     3,     4,    45,    44
    4, 17675, 17676, 17717, 17716,     4,     5,    46,    45
    5, 17676, 17677, 17718, 17717,     5,     6,    47,    46
    6, 17677, 17678, 17719, 17718,     6,     7,    48,    47
    7, 17678, 17679, 17720, 17719,     7,     8,    49,    48
    8, 17679, 17680, 17721, 17720,     8,     9,    50,    49
    9, 17680, 17681, 17722, 17721,     9,    10,    51,    50
   10, 17681, 17682, 17723, 17722,    10,    11,    52,    51
   11, 17682, 17683, 17724, 17723,    11,    12,    53,    52
   12, 17683, 17684, 17725, 17724,    12,    13,    54,    53
   13, 17684, 17685, 17726, 17725,    13,    14,    55,    54
   14, 17685, 17686, 17727, 17726,    14,    15,    56,    55
   15, 17686, 17687, 17728, 17727,    15,    16,    57,    56
   16, 17687, 17688, 17729, 17728,    16,    17,    58,    57
   17, 17688, 17689, 17730, 17729,    17,    18,    59,    58
   18, 17689, 17690, 17731, 17730,    18,    19,    60,    59
   19, 17690, 17691, 17732, 17731,    19,    20,    61,    60
   20, 17691, 17692, 17733, 17732,    20,    21,    62,    61
** ... 51580 like lines cut
*Nset, nset=_PickedSet2, internal, generate
     1,  70684,      1
*Elset, elset=_PickedSet2, internal, generate
     1,  51600,      1
*Nset, nset=Bottom
 9069,
*Nset, nset=Top
 9095,
** Section: BBIDNO30
*Solid Section, elset=_PickedSet2, material=Material-1
,
*End Part
**  
**
** ASSEMBLY
**
*Assembly, name=Assembly
**  
*Instance, name="pure shear sample w partition-1-1", part="pure shear sample w partition-1"
 -596.977012,    36.183367,        -0.25
 -596.977012,    36.183367,        -0.25,  -595.977012,    36.183367,        -0.25,          90.
*End Instance
**  
*Instance, name="pure shear sample w partition-2-1", part="pure shear sample w partition-2"
 -596.977012,    36.183367,        -0.25
 -596.977012,    36.183367,        -0.25,  -595.977012,    36.183367,        -0.25,          90.
*End Instance
**  
*Instance, name="pure shear sample w partition-3-1", part="pure shear sample w partition-3"
 -596.977012,    36.183367,        -0.25
 -596.977012,    36.183367,        -0.25,  -595.977012,    36.183367,        -0.25,          90.
*End Instance
**  
*Node
      1, -1.74685397e-07,          88., -3.60822483e-15
*Node
      2, -1.74685397e-07, -3.82696555e-07, 1.77635684e-15
*Nset, nset=_PickedSet24, internal
 1,
*Nset, nset=_PickedSet25, internal, instance="pure shear sample w partition-1-1", generate
   1,  680,    1
*Elset, elset=_PickedSet25, internal, instance="pure shear sample w partition-1-1", generate
   1,  295,    1
*Nset, nset=_PickedSet26, internal
 2,
*Nset, nset=_PickedSet27, internal, instance="pure shear sample w partition-2-1", generate
   1,  718,    1
*Elset, elset=_PickedSet27, internal, instance="pure shear sample w partition-2-1", generate
   1,  314,    1
*Nset, nset=_PickedSet32, internal, instance="pure shear sample w partition-2-1"
   2,   4,  84,  85,  86,  87,  88,  89,  90,  91,  92,  93,  94,  95,  96,  97
  98,  99, 100, 101, 102, 361, 363, 443, 444, 445, 446, 447, 448, 449, 450, 451
 452, 453, 454, 455, 456, 457, 458, 459, 460, 461
*Elset, elset=_PickedSet32, internal, instance="pure shear sample w partition-2-1"
  46,  62, 113, 168, 169, 171, 173, 175, 180, 193, 194, 196, 197, 198, 201, 225
 228, 237, 255, 294
*Nset, nset=_PickedSet33, internal, instance="pure shear sample w partition-1-1"
   2,   4,  84,  85,  86,  87,  88,  89,  90,  91,  92,  93,  94,  95,  96,  97
  98,  99, 100, 101, 102, 342, 344, 424, 425, 426, 427, 428, 429, 430, 431, 432
 433, 434, 435, 436, 437, 438, 439, 440, 441, 442
*Elset, elset=_PickedSet33, internal, instance="pure shear sample w partition-1-1"
  16,  17,  47, 100, 138, 148, 174, 175, 176, 177, 180, 194, 195, 200, 202, 206
 216, 226, 231, 255
*Elset, elset=__PickedSurf28_S5, internal, instance="pure shear sample w partition-1-1"
  51, 143, 171, 173, 181, 223
*Elset, elset=__PickedSurf28_S3, internal, instance="pure shear sample w partition-1-1"
  90, 118, 146, 212, 222
*Elset, elset=__PickedSurf28_S6, internal, instance="pure shear sample w partition-1-1"
 144, 150, 169
*Elset, elset=__PickedSurf28_S4, internal, instance="pure shear sample w partition-1-1"
 170, 186, 205, 217, 218, 233
*Surface, type=ELEMENT, name=_PickedSurf28, internal
__PickedSurf28_S5, S5
__PickedSurf28_S3, S3
__PickedSurf28_S6, S6
__PickedSurf28_S4, S4
*Elset, elset=__PickedSurf29_S4, internal, instance="pure shear sample w partition-3-1", generate
    40,  51600,     40
*Surface, type=ELEMENT, name=_PickedSurf29, internal
__PickedSurf29_S4, S4
*Elset, elset=__PickedSurf30_S6, internal, instance="pure shear sample w partition-2-1"
  31, 153
*Elset, elset=__PickedSurf30_S5, internal, instance="pure shear sample w partition-2-1"
  38, 150, 151, 208, 216
*Elset, elset=__PickedSurf30_S3, internal, instance="pure shear sample w partition-2-1"
  52,  60, 185, 220, 238, 304
*Elset, elset=__PickedSurf30_S4, internal, instance="pure shear sample w partition-2-1"
 136, 152, 204, 213, 217, 230, 253
*Surface, type=ELEMENT, name=_PickedSurf30, internal
__PickedSurf30_S6, S6
__PickedSurf30_S5, S5
__PickedSurf30_S4, S4
__PickedSurf30_S3, S3
*Elset, elset=__PickedSurf31_S6, internal, instance="pure shear sample w partition-3-1", generate
     1,  51561,     40
*Surface, type=ELEMENT, name=_PickedSurf31, internal
__PickedSurf31_S6, S6
** Constraint: BottomRigid
*Rigid Body, ref node=_PickedSet26, elset=_PickedSet27
** Constraint: BottomTie
*Tie, name=BottomTie, adjust=yes
_PickedSurf31, _PickedSurf30
** Constraint: TopRigid
*Rigid Body, ref node=_PickedSet24, elset=_PickedSet25
** Constraint: TopTie
*Tie, name=TopTie, adjust=yes
_PickedSurf29, _PickedSurf28
*End Assembly
** 
** MATERIALS
** 
*Material, name=Material-1
*Density
 1.06e-09,
*Hyperelastic, mooney-rivlin
 0.058239, 0.047687,       0.
** 
** BOUNDARY CONDITIONS
** 
** Name: Bottom fix Type: Symmetry/Antisymmetry/Encastre
*Boundary
_PickedSet32, ENCASTRE
** ----------------------------------------------------------------
** 
** STEP: PlanarShear
** 
*Step, name=PlanarShear, nlgeom=YES, inc=20000
*Static
0.01, 1., 1e-05, 0.05
** 
** BOUNDARY CONDITIONS
** 
** Name: Tension Type: Displacement/Rotation
*Boundary
_PickedSet33, 2, 2, 50.
** 
** OUTPUT REQUESTS
** 
*Restart, write, frequency=0
** 
** FIELD OUTPUT: F-Output-1
** 
*Output, field
*Node Output
RF, U
*Element Output, directions=YES
LE, S
** 
** HISTORY OUTPUT: Bottom
** 
*Output, history
*Node Output, nset="pure shear sample w partition-3-1".Bottom
U2, 
** 
** HISTORY OUTPUT: Top
** 
*Node Output, nset="pure shear sample w partition-3-1".Top
U2, 
*End Step
