*Heading
** Job name: 1_MR_comp3 Model name: Compression_MR_3
** Generated by: Abaqus/CAE 2025
*Preprint, echo=NO, model=NO, history=NO, contact=NO
**
** PARTS
**
*Part, name=compression_sample_3D
*Node
      1,   14.3000002,        -6.25,         6.25
      2,  -14.3000002,        -6.25,         6.25
      3,  -14.3000002,         6.25,         6.25
      4,   14.3000002,         6.25,         6.25
      5,   14.2651663,        -6.25,   7.24751759
      6,   14.1608334,        -6.25,   8.24017525
      7,   13.9875107,        -6.25,    9.2231369
      8,   13.7460423,        -6.25,   10.1916142
      9,   13.4376049,        -6.25,   11.1408882
     10,   13.0636997,        -6.25,   12.0663338
     11,   12.6261501,        -6.25,   12.9634438
     12,   12.1270876,        -6.25,   13.8278456
     13,    11.568943,        -6.25,   14.6553288
     14,   10.9544353,        -6.25,   15.4418631
     15,   10.2865591,        -6.25,   16.1836147
     16,   9.56856728,        -6.25,   16.8769703
     17,   8.80395889,        -6.25,   17.5185547
     18,   7.99645853,        -6.25,    18.105238
     19,    7.1500001,        -6.25,   18.6341629
     20,   6.26870728,        -6.25,   19.1027546
** ... 75819 like lines cut
*Element, type=C3D10H
    1,  2637,  2638,  2639,  2640, 10129, 10128, 10127, 10131, 10130, 10132
    2,  2641,  2638,  2639,  2637, 10134, 10128, 10133, 10135, 10129, 10127
    3,  2638,  2639,  2642,  2643, 10128, 10137, 10136, 10139, 10138, 10140
    4,  2638,  2642,  2644,  2645, 10136, 10142, 10141, 10144, 10143, 10145
    5,  2638,  2644,  2646,  2647, 10141, 10147, 10146, 10149, 10148, 10150
    6,  2648,  2649,  2650,  2651, 10153, 10152, 10151, 10155, 10154, 10156
    7,  2648,  2652,  2651,  2653, 10158, 10157, 10155, 10160, 10159, 10161
    8,  2648,  2654,  2653,  2655, 10163, 10162, 10160, 10165, 10164, 10166
    9,  2648,  2656,  2654,  2655, 10168, 10167, 10163, 10165, 10169, 10164
   10,  2648,  2650,  2657,  2658, 10151, 10171, 10170, 10173, 10172, 10174
   11,  2659,  2660,  2661,  2662, 10177, 10176, 10175, 10179, 10178, 10180
   12,  2662,  2663,  2664,  2665, 10183, 10182, 10181, 10185, 10184, 10186
   13,  2662,  2666,  2664,  2667, 10188, 10187, 10181, 10190, 10189, 10191
   14,  2662,  2668,  2663,  2669, 10193, 10192, 10183, 10195, 10194, 10196
   15,  2662,  2667,  2664,  2668, 10190, 10191, 10181, 10193, 10197, 10198
   16,  2662,  2670,  2668,  2669, 10200, 10199, 10193, 10195, 10201, 10194
   17,  2671,  2672,  2673,  2674, 10204, 10203, 10202, 10206, 10205, 10207
   18,  2672,  2675,  2671,  2676, 10209, 10208, 10204, 10211, 10210, 10212
   19,  2672,  2677,  2678,  2679, 10215, 10214, 10213, 10217, 10216, 10218
   20,  2672,  2673,  2680,  2681, 10203, 10220, 10219, 10222, 10221, 10223
** ... 52934 like lines cut
*Nset, nset=_PickedSet2, internal, generate
     1,  75839,      1
*Elset, elset=_PickedSet2, internal, generate
     1,  52954,      1
** Section: BBDINO30
*Solid Section, elset=_PickedSet2, material=BBIDNO30
,
*End Part
**  
**
** ASSEMBLY
**
*Assembly, name=Assembly
**  
*Instance, name=compression_sample_3D-1, part=compression_sample_3D
          0.,         6.25,        -6.25
*End Instance
**  
*Node
      1,           0.,         12.5, 2.30926389e-14
*Node
      2,           0.,           0., -2.04281037e-14
*Nset, nset=BottomRP
 2,
*Nset, nset=TopRP
 1,
*Nset, nset=_PickedSet47, internal, instance=compression_sample_3D-1
     1,     2,     5,     6,     7,     8,     9,    10,    11,    12,    13,    14,    15,    16,    17,    18
    19,    20,    21,    22,    23,    24,    25,    26,    27,    28,    29,    30,    31,    32,    33,    34
    35,    36,    37,    38,    39,    40,    41,    42,    43,    44,    45,    46,    47,    48,    49,    50
    51,    52,    53,    54,    55,    56,    57,    58,    59,    60,    61,    62,    63,    64,    65,    66
    67,    68,    69,    70,    71,    72,    73,    74,    75,    76,    77,    78,    79,    80,    81,    82
    83,    84,    85,    86,    87,    88,    89,    90,    91,    92,   205,   206,   207,   208,   209,   210
   211,   212,   213,   214,   215,   216,   217,   218,   219,   220,   221,   222,   223,   224,   225,   226
   227,   228,   229,   230,   231,   232,   233,   234,   235,   236,   237,   238,   239,   240,   241,   242
   243,   244,   245,   246,   247,   248,   249,   250,   251,   252,   253,   254,   255,   256,   257,   258
   259,   260,   261,   262,   263,   264,   265,   266,   267,   268,   269,   270,   271,   272,   273,   274
   275,   276,   277,   278,   279,   280,   281,   282,   283,   284,   285,   286,   287,   288,   289,   290
   291,   292,   293,   294,   295,   296,   297,   298,   299,   300,   301,   302,   303,   304,   305,   306
   307,   308,   309,   310,   311,   312,   313,   314,   315,   316,   317,   318,   319,   320,   321,   322
   323,   324,   325,   326,   327,   328,   329,   330,   331,   332,   333,   334,   335,   336,   337,   338
   339,   340,   341,   342,   343,   344,   345,   346,   347,   348,   349,   350,   351,   352,   353,   354
   355,   356,   357,   358,   359,   360,   361,   362,   363,   364,   365,   366,   367,   368,   369,   370
   371,   372,   373,   374,   375,   376,   377,   378,   379,   380,   381,   382,   383,   384,   385,   386
   387,   388,   389,   390,   391,   392,   393,   394,   395,   396,   397,   398,   399,   400,   401,   402
   403,   404,   405,   406,   407,   408,   409,   410,   411,   412,   413,   414,   415,   416,   417,   418
   419,   420,   421,   422,   423,   424,   425,   426,   427,   428,   429,   430,   431,   432,   433,   434
** ... 170 like lines cut
*Elset, elset=_PickedSet47, internal, instance=compression_sample_3D-1
    80,   338,   406,   449,   616,   730,   758,   780,   955,  1222,  1241,  1410,  1474,  1562,  1676,  1714
  1879,  1940,  2515,  2535,  2613,  2693,  2822,  2945,  2966,  3155,  3627,  3628,  3675,  3677,  3680,  3697
  3699,  3704,  3732,  3734,  3738,  3740,  3747,  3750,  3767,  3771,  3778,  3790,  3803,  3811,  3817,  3828
  3830,  3841,  3858,  3863,  3870,  3876,  3881,  3917,  3924,  3929,  3934,  3936,  3959,  3961,  3965,  3976
  3989,  3996,  4004,  4008,  4009,  4012,  4014,  4020,  4022,  4027,  4028,  4033,  4038,  4067,  4074,  4089
  4092,  4096,  4103,  4121,  4127,  4140,  4153,  4159,  4164,  4165,  4169,  4171,  4172,  4173,  4177,  4179
  4187,  4200,  4201,  4227,  4234,  4244,  4257,  4275,  4279,  4290,  4294,  4297,  4305,  4317,  4321,  4322
  4325,  4331,  4337,  4346,  4348,  4356,  4357,  4366,  4373,  4381,  4392,  4394,  4401,  4405,  4407,  4408
  4415,  4424,  4425,  4466,  4475,  4477,  4488,  4508,  4525,  4529,  4535,  4542,  4547,  4561,  4578,  4579
  4581,  4589,  4591,  4592,  4593,  4602,  4604,  4612,  4621,  4624,  4642,  4650,  4656,  4660,  4662,  4681
  4682,  4685,  4707,  4726,  4730,  4745,  4749,  4761,  4767,  4777,  4779,  4792,  4797,  4799,  4815,  4819
  4823,  4824,  4836,  4841,  4842,  4845,  4860,  4868,  4887,  4897,  4898,  4900,  4902,  4917,  4933,  4937
  4942,  4949,  4966,  4972,  4974,  4975,  4984,  4992,  4993,  4995,  4996,  5015,  5019,  5023,  5027,  5032
  5039,  5043,  5049,  5050,  5056,  5060,  5064,  5073,  5076,  5078,  5084,  5098,  5102,  5103,  5112,  5114
  5127,  5134,  5150,  5176,  5181,  5182,  5183,  5186,  5187,  5188,  5189,  5198,  5199,  5204,  5206,  5207
  5215,  5221,  5227,  5246,  5253,  5258,  5264,  5265,  5270,  5282,  5283,  5284,  5296,  5310,  5315,  5327
  5328,  5333,  5335,  5343,  5358,  5367,  5373,  5374,  5390,  5395,  5398,  5413,  5417,  5437,  5459,  5465
  5474,  5475,  5481,  5490,  5504,  5516,  5525,  5529,  5530,  5538,  5544,  5550,  5558,  5570,  5575,  5584
  5586,  5603,  5606,  5615,  5624,  5627,  5633,  5637,  5642,  5653,  5659,  5662,  5670,  5671,  5672,  5684
  5691,  5703,  5711,  5717,  5724,  5729,  5735,  5740,  5741,  5745,  5750,  5758,  5765,  5769,  5771,  5785
** ... 72 like lines cut
*Nset, nset=_PickedSet68, internal, instance=compression_sample_3D-1
     1,     2,     3,     4,    93,    94,    95,    96,    97,    98,    99,   100,   101,   102,   103,   104
   149,   150,   151,   152,   153,   154,   155,   156,   157,   158,   159,   160, 10289, 16732, 21714, 21911
 27910, 28217, 28399, 28724, 33141, 33223, 33238, 33377, 33395, 33402, 33447, 39515, 39857, 39935, 40000, 40013
 40080, 40894, 43817, 43822, 45005, 50942
*Elset, elset=_PickedSet68, internal, instance=compression_sample_3D-1
    35,  1985,  3947,  3997,  5017,  6147,  6256,  6326,  6440,  6764,  8084,  8111,  8127,  8157,  8163,  8214
  8217,  8225,  8265, 11125, 11289, 11308, 11331, 11354, 11398, 11424, 11433, 11594, 11787, 12303, 12518, 12550
 13033, 13036, 13302, 13350, 13394, 13426, 13526, 13557, 13714, 16311, 17462, 17468, 17977, 18227, 18397, 18613
 20203, 20548, 21916, 24993
*Elset, elset=__PickedSurf69_S3, internal, instance=compression_sample_3D-1
    80,   338,   406,   449,   616,   758,   780,   955,  1222,  1241,  1410,  1474,  1562,  1676,  1714,  1879
  1940,  2535,  2613,  2693,  2822,  2945,  2966,  3155,  3627,  3628,  3675,  3677,  3680,  3697,  3699,  3704
  3732,  3734,  3738,  3740,  3747,  3750,  3767,  3771,  3778,  3790,  3803,  3811,  3817,  3828,  3830,  3858
  3870,  3876,  3881,  3917,  3924,  3929,  3934,  3936,  3959,  3961,  3965,  3976,  3989,  3996,  4004,  4008
  4009,  4012,  4014,  4020,  4022,  4027,  4028,  4033,  4038,  4067,  4074,  4092,  4096,  4103,  4121,  4127
  4140,  4153,  4159,  4164,  4165,  4169,  4171,  4172,  4173,  4177,  4179,  4200,  4201,  4227,  4234,  4244
  4257,  4275,  4279,  4290,  4297,  4305,  4317,  4321,  4322,  4325,  4331,  4337,  4346,  4348,  4356,  4357
  4366,  4373,  4381,  4392,  4394,  4401,  4405,  4407,  4408,  4415,  4424,  4425,  4466,  4475,  4477,  4488
  4508,  4525,  4529,  4535,  4542,  4547,  4561,  4578,  4579,  4581,  4589,  4591,  4592,  4602,  4604,  4612
  4621,  4624,  4642,  4650,  4656,  4660,  4662,  4681,  4682,  4685,  4707,  4726,  4730,  4745,  4749,  4761
  4767,  4777,  4779,  4792,  4797,  4799,  4815,  4819,  4823,  4824,  4836,  4841,  4842,  4845,  4860,  4868
  4887,  4897,  4898,  4900,  4902,  4917,  4933,  4949,  4966,  4972,  4974,  4975,  4984,  4992,  4993,  4995
  4996,  5023,  5027,  5032,  5039,  5043,  5049,  5050,  5056,  5060,  5064,  5073,  5076,  5078,  5084,  5098
  5102,  5103,  5112,  5114,  5127,  5134,  5150,  5176,  5181,  5182,  5183,  5186,  5187,  5188,  5189,  5198
  5199,  5204,  5206,  5207,  5221,  5227,  5246,  5253,  5258,  5264,  5265,  5270,  5283,  5284,  5296,  5310
  5315,  5327,  5328,  5333,  5335,  5358,  5367,  5373,  5374,  5390,  5395,  5398,  5417,  5437,  5459,  5465
  5474,  5475,  5481,  5504,  5516,  5525,  5529,  5530,  5544,  5550,  5558,  5570,  5575,  5584,  5586,  5603
  5606,  5615,  5624,  5627,  5633,  5637,  5642,  5653,  5659,  5662,  5670,  5671,  5672,  5684,  5691,  5703
  5711,  5717,  5724,  5729,  5740,  5741,  5745,  5750,  5758,  5765,  5769,  5771,  5786,  5789,  5809,  5814
  5817,  5823,  5834,  5835,  5836,  5858,  5860,  5867,  5870,  5875,  5876,  5877,  5883,  5886,  5889,  5890
** ... 66 like lines cut
*Elset, elset=__PickedSurf69_S4, internal, instance=compression_sample_3D-1
   730,  3841,  3863,  4593,  4942,  5015,  5019,  5282,  6141,  6337,  6365,  6450,  6834,  6975,  7726,  7738
  8278,  8482,  8505,  9461,  9687, 10147, 10295, 10526, 11137, 11861, 19294, 19890, 19984, 20053, 20435, 21058
 21687, 22596, 23193, 23731, 23805, 24607, 24897, 25882, 26672, 26966, 27065, 27352, 27598, 27756, 28404, 31910
 33816,
*Elset, elset=__PickedSurf69_S2, internal, instance=compression_sample_3D-1
  2515,  4089,  4187,  4294,  5215,  5343,  5413,  5538,  5735,  5785,  5885,  5996,  6644,  7018,  7163,  7189
  7214,  7362,  7366,  7560,  7840,  7884,  8087,  8088,  8727,  8802, 10302, 10681, 12468, 13532, 14174, 14668
 17528, 17874, 18077, 18281
*Elset, elset=__PickedSurf69_S1, internal, instance=compression_sample_3D-1
  4937,  5490,  8779, 14370, 14533, 20920, 21651, 28149, 30816, 30851, 31873, 32079, 35614, 35619, 40606
*Surface, type=ELEMENT, name=_PickedSurf69, internal
__PickedSurf69_S3, S3
__PickedSurf69_S4, S4
__PickedSurf69_S2, S2
__PickedSurf69_S1, S1
*Elset, elset=__PickedSurf74_S3, internal, instance=compression_sample_3D-1
   954,  1175,  1367,  1790,  2036,  2212,  2792,  2837,  3011,  3084,  3113,  3131,  3623,  3648,  3723,  3753
  3756,  3787,  3819,  3839,  3893,  3894,  3898,  3921,  3927,  3937,  3951,  3979,  3988,  4018,  4029,  4032
  4035,  4050,  4053,  4059,  4070,  4081,  4085,  4104,  4125,  4130,  4133,  4135,  4143,  4288,  4335,  4341
  4350,  4377,  4437,  5165,  5681,  5815,  5825,  5923,  5962,  5969,  6329,  6356,  6358,  6367,  6371,  6379
  6389,  6392,  6426,  6501,  6535,  6543,  6544,  6547,  6555,  6563,  6604,  6659,  6670,  6690,  6750,  6789
  6824,  6853,  6893,  6896,  6901,  6917,  6936,  6949,  6951,  6999,  7036,  7038,  7129,  7157,  7198,  7204
  7213,  7231,  7232,  7252,  7306,  7325,  7369,  7370,  7466,  7473,  7505,  7507,  7536,  7547,  7563,  7564
  7585,  7587,  7635,  7641,  7652,  7716,  7719,  7723,  7792,  7812,  7831,  7874,  7889,  7932,  7973,  7979
  8032,  8034,  8051,  8073,  8198,  8208,  8227,  8234,  8253,  8394,  8509,  8511,  8670,  8674,  8820,  8894
  8950,  9031,  9041,  9055,  9060,  9063,  9112,  9116,  9133,  9177,  9194,  9203,  9222,  9345,  9396,  9422
  9460,  9479,  9494,  9544,  9549,  9555,  9646,  9710,  9716,  9757,  9788,  9829,  9832,  9854,  9982, 10005
 10026, 10055, 10132, 10183, 10332, 10402, 10410, 10476, 10478, 10492, 10503, 10575, 10702, 10730, 10793, 10816
 10853, 10862, 10865, 10924, 10926, 10934, 10937, 11010, 11019, 11040, 11042, 11094, 11099, 11111, 11168, 11170
 11238, 11239, 11256, 11282, 11302, 11306, 11444, 11445, 11450, 11451, 11455, 11476, 11489, 11511, 11530, 11531
 11537, 11538, 11548, 11550, 11553, 11556, 11564, 11577, 11595, 11596, 11605, 11610, 11613, 11623, 11626, 11634
 11635, 11637, 11640, 11647, 11650, 11654, 11658, 11666, 11672, 11674, 11675, 11679, 11680, 11694, 11695, 11696
 11714, 11734, 11737, 11738, 11739, 11743, 11746, 11782, 11809, 11823, 11829, 11839, 11877, 11879, 11892, 11910
 11912, 11926, 11934, 11935, 11943, 11945, 11948, 11951, 11974, 11975, 11977, 11980, 11991, 11995, 11997, 12043
 12050, 12056, 12061, 12071, 12077, 12078, 12081, 12082, 12083, 12093, 12095, 12097, 12099, 12107, 12108, 12110
 12119, 12122, 12124, 12128, 12138, 12141, 12146, 12147, 12151, 12158, 12169, 12179, 12194, 12198, 12211, 12216
** ... 60 like lines cut
*Elset, elset=__PickedSurf74_S1, internal, instance=compression_sample_3D-1
  1690,  3761,  8329,  8683,  8904,  9211,  9426,  9702,  9846,  9852, 10056, 10188, 10252, 10414, 10963, 10968
 11320, 11473, 11517, 11888, 11909, 11914, 11931, 11944, 12684, 12698, 12763, 12892, 12894, 15756, 15780, 15813
 15897, 15949, 15964, 19765, 21813, 22276, 30222, 36185
*Elset, elset=__PickedSurf74_S4, internal, instance=compression_sample_3D-1
  3636,  5832,  9140, 10133, 10269, 10361, 10722, 11472, 11970, 12310, 12328, 12510, 12543, 12691, 12707, 12711
 12949, 13671, 13804, 14095, 14246, 14634, 15163, 15265, 15488, 15759, 15788, 15924, 16323, 18410, 18896, 19233
 19757, 19769, 19976, 20060, 20153, 20159, 20166, 20237, 20884, 21451, 21616, 21820, 21938, 21940, 22862, 22891
 23297, 23708, 23770, 24587, 25621, 25835, 26540, 26962, 27966, 28503, 28922, 29696, 31572, 31817, 31990, 33024
 33681,
*Elset, elset=__PickedSurf74_S2, internal, instance=compression_sample_3D-1
  3998,  4015,  4048,  6671,  6851,  7986,  8265,  8462,  8571,  8607,  8709,  9348,  9638,  9779,  9927,  9974
 10590, 10653, 10950, 11248, 11463, 11579, 11652, 11783, 11800, 11818, 11820, 11927, 11933, 12156, 12217, 12233
 12300, 12317, 12331, 12502, 12511, 12515, 12648, 12717, 12787, 12860, 12885, 13812, 13839, 13862, 13896, 14066
 14289, 14296, 14492, 14495, 14741, 14753, 14765, 14796, 15161, 15194, 15309, 15409, 15434, 15521, 15703, 15778
 15902, 15941, 16171, 16943, 17914, 19232, 24726, 26581, 28288, 31395
*Surface, type=ELEMENT, name=_PickedSurf74, internal
__PickedSurf74_S3, S3
__PickedSurf74_S1, S1
__PickedSurf74_S4, S4
__PickedSurf74_S2, S2
** Constraint: Coupling_bottom
*Coupling, constraint name=Coupling_bottom, ref node=BottomRP, surface=_PickedSurf69
*Distributing, weighting method=UNIFORM
1, 1
2, 2
3, 3
** Constraint: Coupling_top
*Coupling, constraint name=Coupling_top, ref node=TopRP, surface=_PickedSurf74
*Distributing, weighting method=UNIFORM
1, 1
2, 2
3, 3
*End Assembly
** 
** MATERIALS
** 
*Material, name=BBIDNO30
*Density
 1.06e-09,
*Hyperelastic, mooney-rivlin
 0.058239, 0.047687,       0.
** 
** BOUNDARY CONDITIONS
** 
** Name: Bottom_Fix Type: Symmetry/Antisymmetry/Encastre
*Boundary
BottomRP, ENCASTRE
** ----------------------------------------------------------------
** 
** STEP: Compression
** 
*Step, name=Compression, nlgeom=YES, inc=20000
*Static
0.01, 1., 1e-05, 0.05
** 
** BOUNDARY CONDITIONS
** 
** Name: Bottom_constraint Type: Displacement/Rotation
*Boundary
_PickedSet47, 2, 2
** Name: Compression Type: Displacement/Rotation
*Boundary
TopRP, 2, 2, -5.0014
** Name: VerticalLineConstraint Type: Displacement/Rotation
*Boundary
_PickedSet68, 3, 3
** 
** OUTPUT REQUESTS
** 
*Restart, write, frequency=0
** 
** FIELD OUTPUT: F-Output-1
** 
*Output, field
*Node Output
RF, U
*Element Output, directions=YES
E, S
** 
** HISTORY OUTPUT: Force_Disp
** 
*Output, history
*Node Output, nset=TopRP
RF2, U2
*End Step
